%mem=8GB
%nprocshared=2
%chk=benzene-opt.chk

#p opt B3LYP/6-31G(d) geom=connectivity 

opt

0 1
C 
C 1 B1
C 2 B2 1 A1
C 3 B3 2 A2 1 D1
C 4 B4 3 A3 2 D2
C 1 B5 2 A4 3 D3
H 6 B6 1 A5 2 D4
H 5 B7 6 A6 1 D5
H 4 B8 5 A7 6 D6
H 3 B9 2 A8 1 D7
H 2 B10 1 A9 6 D8
H 1 B11 2 A10 3 D9

B1 1.342423626
B2 1.342423626
B3 1.342423626
B4 1.342423626
B5 1.342423626
B6 1.103930868
B7 1.103930868
B8 1.103930868
B9 1.103930868
B10 1.103930868
B11 1.103930868
A1 120.0000000
A2 120.0000000
A3 120.0000000
A4 120.0000000
A5 120.0000000
A6 120.0000000
A7 120.0000000
A8 120.0000000
A9 120.0000000
A10 120.0000000
D1 -0.000000000
D2 0.000000000
D3 -0.000000000
D4 180.0000000
D5 -180.0000000
D6 -180.0000000
D7 180.0000000
D8 180.0000000
D9 180.0000000

1 2 2.0 6 1.0 12 1.0
2 1 2.0 3 1.0 11 1.0
3 2 1.0 4 2.0 10 1.0
4 5 1.0 3 2.0 9 1.0
5 6 2.0 4 1.0 8 1.0
6 1 1.0 5 2.0 7 1.0
7 6 1.0
8 5 1.0
9 4 1.0
10 3 1.0
11 2 1.0
12 1 1.0


--Link1--
%mem=8GB
%nprocshared=2
%oldchk=benzene-opt.chk
%chk=benzene-freq.chk

#p freq B3LYP/chkbasis geom=allcheck 

freq


--Link1--
%mem=8GB
%nprocshared=2
%oldchk=benzene-opt.chk
%chk=benzene-td.chk

#p td=(nstates=10,50-50) B3LYP/chkbasis geom=allcheck 

td



